108
5.038800 5.038800 5.038800
Ar  0.2366335 -0.0131473  0.1754534
Ar  1.4354387 -0.1645695  0.9883725
Ar  1.2648910  0.7939984 -0.1065282
Ar  0.6009376  0.5334860  0.9045976
Ar  0.0096913  0.3905873  1.7322042
Ar  0.5691963  0.0411750  2.9683655
Ar  0.6707955  0.8862500  2.1648736
Ar  0.2150991  1.0957874  3.2919301
Ar  0.3703831  0.2087072  3.8728885
Ar  1.4563048  0.1458230  4.1383660
Ar  1.2645871  1.0069219  3.7477058
Ar  0.4049404  1.0536652  4.5727697
Ar  0.6932505  1.7117641  0.2353258
Ar  0.8200915  1.5255845  1.2822409
Ar  1.1216391  2.6837828  0.0553655
Ar  0.5445587  2.5529559  1.4332705
Ar -0.1992368  1.5676800  1.5107006
Ar  1.6752028  1.5923240  2.2184339
Ar  1.1322402  2.5416583  2.5049952
Ar  0.1239427  3.3633002  2.7066289
Ar  0.3917660  2.0823180  3.0833753
Ar  1.3696862  1.7066112  4.3513617
Ar  1.2389198  3.3789317  4.1528277
Ar  0.5027385  2.3419122  4.4346635
Ar  0.3013333  3.3915852  0.5361261
Ar  1.3246800  3.9039169  0.8316901
Ar  0.8990161  4.4300574 -0.2409185
Ar  0.3996715  4.4546885  0.9978677
Ar  1.0096021  3.4133619  1.8022437
Ar  1.1105643  3.5409524  2.8604814
Ar  0.9325220  4.8815988  1.8111370
Ar -0.0157476  4.2654960  2.3016722
Ar -0.1491339  4.0140346  3.3335418
Ar  0.2113096  3.5626523  4.2768396
Ar  0.7749990  4.1614201  3.7182224
Ar -0.2022873  4.5632317  4.2682109
Ar  1.8989486 -0.0506873  0.0465319
Ar  2.6200902  0.2875266  0.8004035
Ar  2.1491290  0.8913755 -0.4760478
Ar  1.8392502  1.0652982  0.8062054
Ar  1.9401254  0.5276167  1.8581526
Ar  2.4818054  0.1449546  2.6447435
Ar  3.2453212  1.2628519  2.6578237
Ar  1.5715901  0.5164187  2.8035222
Ar  1.5943383 -0.4526694  3.2520923
Ar  2.7605070 -0.7734651  3.9125860
Ar  2.3865218  1.1896431  3.1921964
Ar  2.3508164  0.1681264  3.6083930
Ar  1.9035033  2.0329859  0.3473785
Ar  2.7770032  1.3132402  0.4423693
Ar  2.7100564  2.7177893  0.2949067
Ar  1.9901468  3.0511701  0.9233162
Ar  1.8923344  2.1086617  1.3434546
Ar  2.4019478  2.3343570  2.2419628
Ar  3.3819808  2.5118534  1.7593821
Ar  1.9709491  3.0106146  2.7471208
Ar  1.4985774  2.1682818  3.4810475
Ar  2.7329026  1.7786678  4.5269171
Ar  2.6448085  2.3094091  3.5966441
Ar  2.0424887  2.6207391  4.3244662
Ar  1.8242850  3.6657771  0.0115312
Ar  3.2361024  3.4636406  1.3357694
Ar  2.7135012  4.2487085  0.2244634
Ar  2.3807775  4.0886546  1.1121100
Ar  2.3379383  3.4268785  1.9089961
Ar  3.0980534  3.1430020  2.5388493
Ar  3.0826648  4.3439402  1.9762784
Ar  1.7332755  4.3615593  2.2351072
Ar  2.3147599  3.4379717  3.5858370
Ar  2.7520928  3.3481894  4.5018438
Ar  2.6762171  4.2227120  2.8525786
Ar  1.7558496  4.2404663  4.2233184
Ar  3.6396172  0.3249607  0.3412379
Ar  4.3517687  0.0971332  0.9984823
Ar  4.5788701  0.5669234 -0.2966767
Ar  2.5512931  1.4980670  1.5523051
Ar  4.0591096  0.5286738  2.3330269
Ar  4.6105956 -0.0670825  2.9658808
Ar  3.5126247  1.2508433  1.2058299
Ar  4.1976015  1.1600189  3.0370841
Ar  3.3105171  0.3570174  3.1687125
Ar  3.6692546 -0.3672172  4.6303003
Ar  4.2610966  0.4807857  3.8109207
Ar  2.9946874  0.5142312  4.3481490
Ar  3.7919607  1.4749422  0.0215512
Ar  4.8283209  1.2055195  0.6125028
Ar  4.8764272  2.2946577  0.5509741
Ar  3.5192671  2.2028269  0.8104205
Ar  4.1334450  1.6776517  2.1303068
Ar  4.5383572  2.1123898  3.3622366
Ar  4.4199149  2.6840633  2.3221913
Ar  3.6064142  2.1184108  2.9688208
Ar  3.5716513  1.4924529  3.8282171
Ar  4.5577737  1.7525827  4.4764251
Ar  4.7111544  2.7448468  4.1043566
Ar  3.6029918  2.5367322  4.5222525
Ar  3.4877648  3.3966643  0.2580741
Ar  4.8217084  3.6522456  1.5304564
Ar  4.3838702  4.1765889  0.6001713
Ar  3.2133500  5.4742994  1.7725275
Ar  4.1660936  3.1615880  1.0695690
Ar  3.8684027  3.7701347  2.1211617
Ar  3.3194502  4.6371743  1.0169388
Ar  4.0851127  4.7163721  1.8067484
Ar  3.8855631  3.2268360  3.5193722
Ar  4.4382405  3.1261739  4.9606167
Ar  3.8512535  4.3871924  3.2883610
Ar  4.0591099  3.7314692  4.3613412
