108
5.038800 5.038800 5.038800
Ar -0.0277254  0.0142272  0.2248884
Ar  0.9945774 -0.1164620  0.7851513
Ar  0.9946884  0.6503076  0.1338154
Ar -0.0703154  0.7848801  0.8071887
Ar  0.1896994  0.2012807  1.6529352
Ar  0.7018508  0.2566319  2.5532543
Ar  1.0450060  0.7136190  1.4967394
Ar -0.0689533  0.9786752  2.6218734
Ar -0.0837911 -0.0781063  3.1990507
Ar  0.5260110  0.0000427  4.0645846
Ar  1.0243779  1.0115606  3.3133332
Ar  0.1809386  0.9765795  4.3536295
Ar  0.2387748  1.6957005  0.0566743
Ar  0.9995067  1.5659731  0.8693654
Ar  0.8663712  2.5247191  0.0164984
Ar  0.1889307  2.4638959  0.8155153
Ar  0.0396650  1.5473482  1.7828672
Ar  1.0739948  1.4112141  2.4112969
Ar  0.7902265  2.3446651  1.7287681
Ar -0.0534882  2.4507860  2.4343925
Ar  0.0016014  1.9209828  3.4451191
Ar  0.8303348  1.8991474  4.2952003
Ar  0.9163088  2.3351602  3.0876071
Ar  0.0513857  2.5673605  4.2135236
Ar  0.0336621  3.3660177 -0.2041706
Ar  0.8235732  3.3793815  0.7156655
Ar  0.6914405  4.2786354 -0.1238606
Ar  0.2321752  4.2838201  0.7796933
Ar  0.3314192  3.2598555  1.6610746
Ar  0.9782017  3.5775982  2.6182535
Ar  0.9541319  4.4340102  1.7992374
Ar  0.1995356  4.2571014  2.5074326
Ar  0.0088479  3.3471262  3.0039045
Ar  0.6992488  3.4792225  4.1104840
Ar  0.9144109  4.3732280  3.3602827
Ar -0.0619191  4.1328665  4.0361073
Ar  1.9438426  0.1013680 -0.0160467
Ar  2.5049262 -0.0926923  1.0907556
Ar  2.7579338  0.6636074  0.3668514
Ar  1.8824334  0.8946614  0.8482398
Ar  1.8317561  0.1112671  1.8593064
Ar  2.8279139  0.0670456  2.8743368
Ar  2.5041385  0.9407561  1.8065631
Ar  1.9239505  0.7849546  2.8110123
Ar  1.7868345  0.0155035  3.4855431
Ar  3.0207832 -0.1439646  4.3180887
Ar  2.5654270  1.1546069  3.4644067
Ar  1.6593605  1.1662880  4.2208327
Ar  1.8795549  1.7464981  0.2060843
Ar  2.4854891  1.7656976  0.9589856
Ar  2.5890665  2.6000625  0.0645805
Ar  1.8069900  2.5726672  0.8488780
Ar  1.8422162  1.9603948  1.7530996
Ar  2.5569577  1.7921022  2.5408974
Ar  2.6720783  2.5348435  1.6476817
Ar  1.7841162  2.8225189  2.3668802
Ar  1.7805391  1.8120926  3.4507265
Ar  2.5243513  2.0224901  4.0924814
Ar  2.4240294  2.6232670  3.2511226
Ar  1.5570756  2.7074787  4.1559738
Ar  1.7404920  3.2519356  0.0654299
Ar  2.4169261  3.3893776  0.8416646
Ar  2.5098063  4.3164341  0.0556405
Ar  1.6900683  4.0514005  0.8094385
Ar  1.3969194  3.4377274  1.5770377
Ar  2.6089769  3.4614617  2.6570478
Ar  2.3024476  3.9205940  1.7315386
Ar  1.9442107  4.2436634  2.7364722
Ar  1.6156110  3.5605828  3.6608422
Ar  2.4252300  3.2327117  4.1954831
Ar  2.9508759  4.1324260  3.4863011
Ar  1.6909570  4.1789983  4.5369631
Ar  3.5534041 -0.1866842  0.4042305
Ar  4.2936032  0.1703064  1.1426231
Ar  4.2281800  0.8918824 -0.3545846
Ar  3.5826586  1.1326029  0.9692774
Ar  3.1981927  0.1792675  1.6808970
Ar  4.3957094 -0.0573384  2.2222422
Ar  4.1455925  1.1040309  1.8864188
Ar  3.3992968  1.0351802  2.7664349
Ar  3.6164521  0.3176172  3.6434816
Ar  4.2252454 -0.2934754  4.2861612
Ar  4.4873223  0.7760744  3.6146192
Ar  3.2388093  1.2275219  4.2778531
Ar  3.2842687  1.8305657  0.1827266
Ar  4.4526397  1.6929138  0.6566688
Ar  4.3024153  2.5849184  0.0954521
Ar  3.5661862  2.5567176  1.0207451
Ar  3.3235867  1.7607117  1.7932664
Ar  4.1082049  1.7768030  2.6733008
Ar  4.3135648  2.3003151  1.7470813
Ar  3.3846253  2.6326307  2.5282734
Ar  3.4251309  1.9388512  3.4563814
Ar  4.2952624  1.8786559  4.0798456
Ar  4.3537144  2.6185124  3.2242836
Ar  3.4856560  2.4921930  4.4120056
Ar  3.2789114  3.3805328  0.3734224
Ar  4.6227849  3.2046669  0.7460529
Ar  4.3378920  4.1898087  0.3936114
Ar  3.2164833  4.1280855  0.9987992
Ar  3.4076416  3.3384452  1.6228755
Ar  4.3807170  3.3203461  2.2085075
Ar  4.5628624  4.1212875  1.6081781
Ar  3.4900968  4.1680895  2.4432369
Ar  3.4628629  3.1968183  3.4571374
Ar  4.1402714  3.2089043  4.1666884
Ar  4.1668838  4.1707133  3.2781718
Ar  3.2883637  3.9223045  4.4907237
108
5.038800 5.038800 5.038800
Ar  0.0664548  0.0948694  0.0223492
Ar  0.9824022  0.1667772  0.8058374
Ar  1.0141158  0.8982376 -0.1037354
Ar  0.2424263  1.2501177  0.7666604
Ar  0.1957153  0.0958395  1.8658710
Ar  1.0065617 -0.0657550  2.7288981
Ar  1.0464262  0.9263615  1.6986728
Ar  0.1333180  0.8289070  2.8349713
Ar  0.0173465  0.0681727  3.6296860
Ar  0.7819151  0.0310285  4.4279605
Ar  0.8775560  0.8732825  3.7100757
Ar -0.1021997  0.9858884  4.1511184
Ar  0.3521291  1.8189272 -0.1298681
Ar  1.0873938  1.8677914  0.9288308
Ar  0.5817374  2.8777069 -0.1392781
Ar  0.1304597  2.3011025  0.8571240
Ar  0.3273852  1.7966108  1.7458898
Ar  1.2097159  1.5640466  2.5462551
Ar  0.9649934  2.7031805  1.7637632
Ar  0.2867179  2.8189372  2.7125612
Ar  0.4051093  1.7687431  3.2171591
Ar  1.1270433  1.9961606  4.2031050
Ar  0.9922589  2.5937200  3.4033843
Ar  0.1377491  2.2069472  3.9973496
Ar -0.1180950  3.7272988  0.2631241
Ar  0.9182695  3.4338964  0.9190363
Ar  0.8380218  4.3705957  0.3895781
Ar  0.2156848  4.2183225  1.2081821
Ar  0.4097499  3.5442591  1.8777522
Ar  1.1901488  3.6849421  2.6775277
Ar  1.0544898  4.5637744  1.8460726
Ar  0.2262753  4.3093061  2.6214308
Ar -0.3121016  3.5324819  3.2438181
Ar  1.1732327  3.4038785  3.9408075
Ar  0.7372452  4.2904430  3.5304257
Ar  0.4472347  3.8677321  4.4537753
Ar  1.5788398 -0.0332265 -0.0223150
Ar  2.4626581  0.1839146  0.8922960
Ar  2.4101625  0.9346929  0.2140533
Ar  1.6741753  1.0007707  0.8836691
Ar  2.1327641  0.0161596  1.9934760
Ar  3.2474827 -0.2625975  2.7912590
Ar  2.3752849  1.0383866  1.8481743
Ar  1.8089475  0.7239204  2.7455469
Ar  1.5828670  0.0949853  3.7697284
Ar  2.3353453  0.1180141  4.5412987
Ar  2.7037626  1.1210290  3.2538709
Ar  2.0653750  1.0842167  4.1832239
Ar  1.7700519  1.8846021  0.0230314
Ar  2.4684236  1.7786774  0.8253934
Ar  2.6811212  2.6440217  0.2327725
Ar  1.7120339  2.7766080  0.6066274
Ar  1.8565795  1.9367631  1.8071229
Ar  2.7248239  2.0750920  2.5566140
Ar  2.6402624  2.5722992  1.5790873
Ar  1.8301060  2.6402683  2.5971011
Ar  1.7864472  1.7963523  3.4007694
Ar  2.6357609  2.0598986  4.3557756
Ar  2.2580270  2.8024352  3.6230839
Ar  1.7745414  2.8120841  4.4871345
Ar  1.6919536  3.7563934  0.1690085
Ar  2.5033098  3.5446142  0.7893905
Ar  2.8185127  4.2666553  0.1329457
Ar  1.7216562  4.3416999  1.0291933
Ar  1.9526660  3.2603486  1.7516008
Ar  2.5550047  3.4327152  2.6153826
Ar  2.6070144  4.1172356  1.7714241
Ar  2.2039569  4.6254699  2.9773448
Ar  1.9886983  3.7627131  3.4574664
Ar  2.6038799  3.4339142  4.5696170
Ar  2.7194519  4.3333690  3.9399692
Ar  1.6029513  4.2205984  4.3735615
Ar  3.5035151  0.2287556  0.0487701
Ar  4.5625939  0.1342242  0.9471744
Ar  4.1849480  0.9182351 -0.2023892
Ar  3.3262781  1.0907433  1.1478273
Ar  3.6181664  0.1100384  1.6925655
Ar  4.2652716 -0.1584550  2.9012321
Ar  4.7007768  0.9575844  1.7132532
Ar  3.6644852  0.9539415  2.6577158
Ar  3.3151601  0.2205639  3.7612784
Ar  4.1871128 -0.0804884  4.2895111
Ar  4.2038445  1.1770552  3.5012400
Ar  3.2876297  1.3462864  4.2303943
Ar  3.3484670  1.5567772  0.1859513
Ar  4.2487489  1.4128907  0.8235372
Ar  4.4295348  2.6491220  0.1706210
Ar  3.6889891  2.3130461  0.9561319
Ar  3.6762887  1.7184904  1.9770938
Ar  4.4155558  1.6828732  2.7393057
Ar  4.6058734  2.4148474  1.9226612
Ar  3.5693816  2.8149962  2.5279067
Ar  3.3885797  1.9874712  3.4342478
Ar  4.1105672  2.0903983  4.2898135
Ar  3.9357006  2.9317215  3.4232466
Ar  3.4685379  2.8019073  4.4075363
Ar  3.4412666  3.2988634  0.3930286
Ar  4.6310693  3.2172856  1.1924337
Ar  4.0574300  4.4084467  0.4182786
Ar  3.3112759  4.3789106  1.0763551
Ar  3.4692706  3.3457649  1.5519093
Ar  4.4036329  3.3595882  2.2089561
Ar  4.2521551  4.3236949  1.7278808
Ar  3.5513986  3.8864465  2.6164204
Ar  3.0785421  3.4199133  3.6583985
Ar  4.5656515  3.1689846  4.3372601
Ar  3.8639318  4.2886825  3.5634657
Ar  3.7127113  3.8843052  4.5250264
108
5.038800 5.038800 5.038800
Ar  0.3200419  0.2375678 -0.0332102
Ar  1.2027275 -0.0104825  0.8377706
Ar  0.8700334  1.0024420 -0.1741704
Ar  0.4361726  0.8222002  0.9770985
Ar  0.1343955  0.0877977  1.8380714
Ar  1.0008464  0.1785995  3.0141713
Ar  1.1160320  0.6880560  1.9851136
Ar -0.1212864  0.7560638  2.7260848
Ar -0.1737388  0.0280418  3.7325039
Ar  0.9270739  0.2393888  4.1307671
Ar  1.0395356  1.0395551  3.4976106
Ar  0.2069639  1.4134860  3.9976369
Ar  0.2602532  1.8147134 -0.0092827
Ar  0.7897410  1.8615753  1.2796231
Ar  0.5986175  3.0023338  0.1840464
Ar  0.4169334  2.7854802  1.1485107
Ar  0.2096161  1.5447997  1.9663980
Ar  1.4374717  1.6836471  2.3715196
Ar  0.8456800  2.4865395  2.0589381
Ar  0.3441727  2.9970688  2.9400927
Ar  0.4920290  1.6900064  2.9543899
Ar  1.2556542  1.8734961  4.1027660
Ar  1.3411332  2.5955053  3.4088137
Ar  0.3038637  2.4750700  4.0870453
Ar -0.0742713  3.7043060  0.3130270
Ar  1.0745646  3.7529029  0.8771258
Ar  0.8978883  4.4209597  0.0641038
Ar  0.1552532  4.3781054  1.1074745
Ar  0.5160142  3.5581138  1.8190584
Ar  1.1339357  3.5992711  2.7620928
Ar  1.1226864  4.4468635  2.0449606
Ar  0.2871998  4.3815314  2.7919641
Ar -0.3221541  4.0074304  3.5752037
Ar  0.7512256  3.3715461  4.0664456
Ar  0.9615074  4.2673536  3.5741041
Ar  0.0391974  4.3700198  4.4562918
Ar  1.6843171  0.1876705 -0.1516611
Ar  2.3961802  0.2875392  0.7714941
Ar  2.2287548  1.1328068  0.1369777
Ar  1.6213026  1.0167915  1.0879796
Ar  2.2239165  0.3599176  1.8207487
Ar  3.2187507 -0.2523156  2.3808443
Ar  2.6105673  1.2945005  2.0498013
Ar  1.9487230  0.7490494  2.8410838
Ar  1.7759599 -0.0916645  3.6231946
Ar  3.1153360  0.3228406  4.2255882
Ar  2.8408629  1.0449020  3.2506289
Ar  2.0063709  0.8211231  4.0789274
Ar  1.4745105  1.8315441  0.4422709
Ar  2.6091765  1.7967079  0.7804064
Ar  2.6632133  2.6028014  0.1145880
Ar  1.6542328  2.8434838  0.7776710
Ar  1.9521693  2.1616256  1.4856682
Ar  2.4552097  2.1098530  2.5364620
Ar  2.8549751  2.7249025  1.7213118
Ar  1.6486439  2.7122535  2.4957569
Ar  1.9374522  1.7198495  3.3522447
Ar  2.2089054  1.8925050  4.4725154
Ar  2.3511834  2.6861583  3.5774265
Ar  1.5026545  2.8701899  4.7423148
Ar  1.9422682  3.8953432  0.2141859
Ar  2.8602971  3.4551620  0.8820817
Ar  3.1093144  4.3628195 -0.0165853
Ar  2.0944584  4.3515316  1.1425454
Ar  1.6279545  3.5925899  1.7212772
Ar  2.5369588  3.4008625  2.7823507
Ar  2.7701627  3.9612054  1.8618025
Ar  2.0244047  4.3595788  2.7045307
Ar  1.8490764  3.6478732  3.5077471
Ar  2.4011627  3.3219845  4.4696875
Ar  2.6463866  4.4368909  3.5891234
Ar  1.6738386  4.2960095  4.3578559
Ar  3.2758169  0.5887045  0.2398126
Ar  4.6106121  0.3892799  0.8171522
Ar  4.5665354  1.0699920 -0.3334373
Ar  3.0202333  1.0206880  1.1830920
Ar  3.7847539  0.2096608  1.6994082
Ar  4.3172932 -0.4285890  2.8332577
Ar  4.4906397  1.0362887  1.7506546
Ar  3.6432997  0.9347589  2.5594376
Ar  3.6393432  0.2345892  3.3017813
Ar  4.1977794  0.0848129  4.4158936
Ar  4.1717965  1.1225441  3.5383103
Ar  3.2095195  1.6006407  4.2884221
Ar  3.7122164  1.5841125  0.2854164
Ar  4.6512728  1.5427343  0.7906743
Ar  4.6459082  2.5361188  0.5074846
Ar  3.5955086  2.3977608  1.0247284
Ar  3.6538303  1.7990860  1.9873960
Ar  4.4611024  1.8359756  2.8244637
Ar  4.7074065  2.7773879  1.9722139
Ar  3.6860718  2.7735132  2.4103610
Ar  3.2945099  2.1832662  3.3564412
Ar  4.3730687  1.9317683  4.2560105
Ar  4.4735468  2.7305738  3.6284752
Ar  3.4878849  2.4755726  4.4928719
Ar  3.9869831  3.3143414  0.4965413
Ar  4.5508530  3.5430311  1.3574862
Ar  3.8958243  4.7187278  0.4135056
Ar  3.1847448  4.6415062  1.2742173
Ar  3.5823187  3.4529331  1.7092790
Ar  4.5165086  3.6125747  2.5103696
Ar  4.0316023  4.3200767  1.7175963
Ar  3.5287844  3.9506082  2.8095604
Ar  3.1783015  3.2689254  3.6579264
Ar  4.7752949  3.2921730  4.3546053
Ar  3.8606242  4.3924456  3.7735589
Ar  3.7370593  3.7439024  4.6227495
108
5.038800 5.038800 5.038800
Ar  0.3094147  0.2028024 -0.1439507
Ar  1.2787926 -0.0419286  0.7842735
Ar  0.9006694  0.8575667  0.2344026
Ar  0.6571877  0.5910817  1.1889444
Ar -0.3365269  0.3481277  1.8841291
Ar  0.7862337  0.0450160  2.8586856
Ar  1.2327750  0.8289085  2.1477690
Ar -0.0060481  0.8862064  2.7685191
Ar -0.0215545  0.0569934  3.5234859
Ar  1.0955730  0.1659297  4.1652534
Ar  1.0211837  0.8989655  3.4688147
Ar  0.2347748  1.0052313  4.2374888
Ar  0.4355638  2.0418109  0.1411735
Ar  0.9596446  1.5803494  1.3467710
Ar  0.9178148  3.2133015  0.1173831
Ar  0.5775729  2.5193353  1.0443358
Ar  0.1603959  1.2633552  1.8976879
Ar  1.8298492  1.7345563  2.4302531
Ar  1.0366968  2.5601116  2.1320810
Ar  0.1225612  3.0305370  2.6109989
Ar  0.5588961  1.7878573  3.3110534
Ar  1.1804965  1.4125416  4.3719576
Ar  1.1370179  2.9274153  3.5370034
Ar  0.2835119  2.6454177  4.0641802
Ar  0.0625631  3.9232353  0.3951252
Ar  1.0616010  4.0132233  0.8557421
Ar  0.9590706  4.4641771 -0.1154606
Ar  0.2671380  4.6445553  1.0742186
Ar  0.8578902  3.4415364  1.7561520
Ar  1.0566073  3.6504294  2.8385086
Ar  0.9049916  4.7391609  1.7732845
Ar  0.2161263  4.3075878  2.4435587
Ar -0.3413294  3.9487781  3.4494508
Ar  0.4838555  3.7288132  4.4219906
Ar  0.8575577  4.3832448  3.5795455
Ar -0.3022917  4.4044784  4.3996447
Ar  2.0802085 -0.2321919 -0.1156641
Ar  2.4048919  0.3941772  0.6220867
Ar  2.0040916  0.9248057 -0.0848034
Ar  1.8883830  1.1924416  1.0428290
Ar  2.0031531  0.3571656  1.7998708
Ar  2.7901213  0.0214783  2.7057277
Ar  2.8591216  1.0923664  2.5511845
Ar  1.9665774  0.8101850  2.9037309
Ar  1.9123641 -0.0751297  3.4942347
Ar  2.7453013 -0.1879686  4.2080077
Ar  2.6445398  1.5307129  3.4642532
Ar  1.9791400  0.7383996  4.0220499
Ar  1.8661162  2.0178667  0.2942334
Ar  2.7943057  1.5512259  0.4699905
Ar  2.7341522  2.6871774  0.3616864
Ar  1.7656598  3.1025251  0.8022893
Ar  1.9958306  2.1908437  1.5076838
Ar  2.7277111  2.1171020  2.5915065
Ar  3.0291619  2.7559563  1.7341857
Ar  1.8328983  2.7392966  2.7461402
Ar  1.6758294  1.9500845  3.5168051
Ar  2.6979671  1.8819569  4.4940869
Ar  2.8382951  2.8398832  3.7281802
Ar  2.1292524  2.7672850  4.4595823
Ar  1.9647527  3.6514133 -0.0308064
Ar  2.8578549  3.4869711  1.0940845
Ar  2.9283483  4.3338193  0.1742554
Ar  2.1678410  4.3986750  0.9488950
Ar  2.0258605  3.3328832  1.9769356
Ar  2.8580227  3.2788675  2.5414135
Ar  2.6395086  4.1238387  1.9334910
Ar  1.7314710  4.3328184  2.6505566
Ar  2.0226739  3.3500368  3.4973445
Ar  2.7419595  3.6609435  4.3723353
Ar  2.6722486  4.2002824  3.3211952
Ar  1.7830780  4.1815706  4.0984315
Ar  3.4385583  0.2557003  0.6196809
Ar  4.4306280  0.2620244  0.8704703
Ar  4.4961030  0.7938421 -0.0855348
Ar  3.0964297  0.9549670  1.5036822
Ar  3.7536912  0.4629727  1.9679626
Ar  4.2145779  0.0131675  2.8578283
Ar  4.0133293  1.3308663  1.0845855
Ar  3.8538719  1.3959883  2.7875950
Ar  3.3981251  0.5096640  3.4187403
Ar  3.8693357 -0.0455238  4.6637611
Ar  4.3551820  0.9574188  3.8821880
Ar  3.1062396  0.8099788  4.5119304
Ar  3.8186217  1.5345786  0.0644465
Ar  4.9639890  1.2401940  0.6877561
Ar  4.4455632  2.2003943  1.0059362
Ar  3.4408641  2.1328937  0.8084050
Ar  3.3993589  1.8005815  1.9707096
Ar  4.6183457  2.1473447  3.2587145
Ar  4.6058721  2.3266112  1.9580367
Ar  3.7104633  2.6065114  2.6398599
Ar  3.7528126  1.9176221  3.7234641
Ar  4.5947406  1.9343637  4.3550816
Ar  4.2922166  2.8740441  3.8950623
Ar  3.5062671  2.7796221  4.4704266
Ar  3.6318072  3.3100792  0.3534266
Ar  4.7949666  3.6473615  1.4309420
Ar  3.9129444  4.2499098  0.3105834
Ar  2.9655641  4.9363767  1.4931595
Ar  3.9343351  3.0889273  1.3660856
Ar  4.3412381  3.7980930  2.4927896
Ar  3.8303979  4.1624606  1.6448570
Ar  3.4498522  4.1164988  2.6927764
Ar  3.5271668  3.5594422  3.5247937
Ar  4.6224251  3.0361887  4.8652754
Ar  3.6369485  4.5224359  3.6844843
Ar  3.7021913  3.8472110  4.5034596
108
5.038800 5.038800 5.038800
Ar  0.2366263 -0.0131252  0.1754665
Ar  1.4354405 -0.1645677  0.9883684
Ar  1.2648929  0.7940011 -0.1065291
Ar  0.6009517  0.5334965  0.9046011
Ar  0.0096856  0.3905978  1.7321978
Ar  0.5692094  0.0411681  2.9683772
Ar  0.6708038  0.8862442  2.1648638
Ar  0.2150895  1.0957827  3.2919236
Ar  0.3703800  0.2087051  3.8728866
Ar  1.4562900  0.1458174  4.1383664
Ar  1.2645780  1.0069192  3.7477066
Ar  0.4049438  1.0536592  4.5727773
Ar  0.6932617  1.7117559  0.2353192
Ar  0.8200850  1.5255917  1.2822392
Ar  1.1216212  2.6837974  0.0553568
Ar  0.5445475  2.5529580  1.4332855
Ar -0.1992442  1.5676713  1.5107118
Ar  1.6752077  1.5923172  2.2184272
Ar  1.1322468  2.5416506  2.5050155
Ar  0.1239507  3.3633054  2.7066289
Ar  0.3917634  2.0823263  3.0833778
Ar  1.3696938  1.7066098  4.3513460
Ar  1.2389244  3.3789187  4.1527884
Ar  0.5027380  2.3419149  4.4346639
Ar  0.3013286  3.3915676  0.5361293
Ar  1.3246884  3.9039089  0.8316987
Ar  0.8990172  4.4300716 -0.2408974
Ar  0.3996792  4.4546871  0.9978563
Ar  1.0096013  3.4133722  1.8022387
Ar  1.1105535  3.5409820  2.8604657
Ar  0.9325134  4.8816162  1.8111277
Ar -0.0157469  4.2654881  2.3016824
Ar -0.1491337  4.0140103  3.3335391
Ar  0.2113027  3.5626602  4.2768154
Ar  0.7750003  4.1614398  3.7182293
Ar -0.2022812  4.5632251  4.2682221
Ar  1.8989485 -0.0506942  0.0465309
Ar  2.6200953  0.2875369  0.8003835
Ar  2.1491396  0.8913640 -0.4760432
Ar  1.8392490  1.0653010  0.8062167
Ar  1.9401600  0.5276137  1.8581598
Ar  2.4818059  0.1449502  2.6447576
Ar  3.2453125  1.2628379  2.6578379
Ar  1.5715932  0.5164186  2.8035222
Ar  1.5943447 -0.4526835  3.2520947
Ar  2.7605016 -0.7734662  3.9125895
Ar  2.3865173  1.1896387  3.1922159
Ar  2.3508137  0.1681175  3.6084035
Ar  1.9034894  2.0329784  0.3473828
Ar  2.7769860  1.3132656  0.4423699
Ar  2.7100709  2.7177872  0.2949025
Ar  1.9901513  3.0511674  0.9233185
Ar  1.8923395  2.1086685  1.3434553
Ar  2.4019362  2.3343612  2.2419651
Ar  3.3819831  2.5118749  1.7593856
Ar  1.9709344  3.0106465  2.7471191
Ar  1.4985763  2.1682791  3.4810351
Ar  2.7328937  1.7786649  4.5269041
Ar  2.6447979  2.3094125  3.5966350
Ar  2.0424853  2.6207439  4.3244583
Ar  1.8242903  3.6657684  0.0115367
Ar  3.2361140  3.4636443  1.3357718
Ar  2.7135166  4.2487117  0.2244669
Ar  2.3807861  4.0886441  1.1121118
Ar  2.3379487  3.4268794  1.9089985
Ar  3.0980523  3.1430057  2.5388653
Ar  3.0826654  4.3439391  1.9762794
Ar  1.7332700  4.3615692  2.2351000
Ar  2.3147705  3.4379766  3.5858387
Ar  2.7520869  3.3481948  4.5018629
Ar  2.6762203  4.2227043  2.8525781
Ar  1.7558312  4.2404521  4.2233277
Ar  3.6396117  0.3249578  0.3412280
Ar  4.3517631  0.0971281  0.9984837
Ar  4.5788584  0.5669335 -0.2966812
Ar  2.5513143  1.4980813  1.5522882
Ar  4.0591037  0.5286701  2.3330374
Ar  4.6106079 -0.0670776  2.9658806
Ar  3.5126320  1.2508095  1.2058038
Ar  4.1976006  1.1600336  3.0370819
Ar  3.3105146  0.3570121  3.1687142
Ar  3.6692341 -0.3672329  4.6303008
Ar  4.2611058  0.4807904  3.8109097
Ar  2.9947014  0.5142347  4.3481571
Ar  3.7919531  1.4749201  0.0215408
Ar  4.8283172  1.2055239  0.6125048
Ar  4.8764353  2.2946625  0.5509613
Ar  3.5192640  2.2028208  0.8104293
Ar  4.1334218  1.6776463  2.1302925
Ar  4.5383588  2.1124071  3.3622381
Ar  4.4199106  2.6840530  2.3221916
Ar  3.6064115  2.1184080  2.9688235
Ar  3.5716486  1.4924510  3.8282153
Ar  4.5577686  1.7525860  4.4764224
Ar  4.7111627  2.7448406  4.1043673
Ar  3.6029974  2.5367195  4.5222546
Ar  3.4877758  3.3966506  0.2580998
Ar  4.8217051  3.6522563  1.5304581
Ar  4.3838755  4.1765879  0.6001684
Ar  3.2133489  5.4742955  1.7725277
Ar  4.1660914  3.1615794  1.0695758
Ar  3.8684032  3.7701197  2.1211589
Ar  3.3194537  4.6371836  1.0169390
Ar  4.0851072  4.7163679  1.8067538
Ar  3.8855621  3.2268437  3.5193618
Ar  4.4382458  3.1261872  4.9606149
Ar  3.8512492  4.3871902  3.2883558
Ar  4.0591183  3.7314735  4.3613287
